L24/1726524/Cargas.dss
! ==========================================================
! CARGAS — mes 01
! BT: UCBT_tab agregada por transformador (kW = ENE/730 h)
! MT: UCMT_tab individual no PAC do consumidor
! fator de escala aplicado: 1
! 1 cargas de MT descartadas por PAC ausente da rede.
! ==========================================================
New Load.BT_331239182_331777894_1 Bus1=node_415976222.1.4 Phases=1 Model=8 zipv=(0.5,0,0.5,1,0,0,0) kv=0.1270 pf=0.92 kW=8.226484 Daily=RES1_25
New Load.BT_331239182_331777894_2 Bus1=node_415976222.2.4 Phases=1 Model=8 zipv=(0.5,0,0.5,1,0,0,0) kv=0.1270 pf=0.92 kW=8.226484 Daily=RES1_25
New Load.BT_331239182_331777894_3 Bus1=node_415976222.3.4 Phases=1 Model=8 zipv=(0.5,0,0.5,1,0,0,0) kv=0.1270 pf=0.92 kW=8.226484 Daily=RES1_25
New Load.BT_331241302_331721346_1 Bus1=node_418068401.1.4 Phases=1 Model=8 zipv=(0.5,0,0.5,1,0,0,0) kv=0.1270 pf=0.92 kW=4.713242 Daily=RES1_25
New Load.BT_331241302_331721346_2 Bus1=node_418068401.2.4 Phases=1 Model=8 zipv=(0.5,0,0.5,1,0,0,0) kv=0.1270 pf=0.92 kW=4.713242 Daily=RES1_25
New Load.BT_331241302_331721346_3 Bus1=node_418068401.3.4 Phases=1 Model=8 zipv=(0.5,0,0.5,1,0,0,0) kv=0.1270 pf=0.92 kW=4.713242 Daily=RES1_25
New Load.BT_331364533_1232618464_1 Bus1=node_413873145.1.4 Phases=1 Model=8 zipv=(0.5,0,0.5,1,0,0,0) kv=0.1270 pf=0.92 kW=4.019635 Daily=RES1_25
New Load.BT_331364533_1232618464_2 Bus1=node_413873145.2.4 Phases=1 Model=8 zipv=(0.5,0,0.5,1,0,0,0) kv=0.1270 pf=0.92 kW=4.019635 Daily=RES1_25
New Load.BT_331364533_1232618464_3 Bus1=node_413873145.3.4 Phases=1 Model=8 zipv=(0.5,0,0.5,1,0,0,0) kv=0.1270 pf=0.92 kW=4.019635 Daily=RES1_25
New Load.BT_331471295_331722589_1 Bus1=node_412072848.1.4 Phases=1 Model=8 zipv=(0.5,0,0.5,1,0,0,0) kv=0.1270 pf=0.92 kW=4.138813 Daily=RES1_25
New Load.BT_331471295_331722589_2 Bus1=node_412072848.2.4 Phases=1 Model=8 zipv=(0.5,0,0.5,1,0,0,0) kv=0.1270 pf=0.92 kW=4.138813 Daily=RES1_25
New Load.BT_331471295_331722589_3 Bus1=node_412072848.3.4 Phases=1 Model=8 zipv=(0.5,0,0.5,1,0,0,0) kv=0.1270 pf=0.92 kW=4.138813 Daily=RES1_25
New Load.BT_331471717_331779325_1 Bus1=node_413828706.1.4 Phases=1 Model=8 zipv=(0.5,0,0.5,1,0,0,0) kv=0.1200 pf=0.92 kW=0.142466 Daily=RES1_25
New Load.BT_331471717_331779325_2 Bus1=node_413828706.2.4 Phases=1 Model=8 zipv=(0.5,0,0.5,1,0,0,0) kv=0.1200 pf=0.92 kW=0.142466 Daily=RES1_25
New Load.BT_331571947_331731530_1 Bus1=node_413809440.1.4 Phases=1 Model=8 zipv=(0.5,0,0.5,1,0,0,0) kv=0.1200 pf=0.92 kW=1.150685 Daily=RES1_25
New Load.BT_331571947_331731530_2 Bus1=node_413809440.2.4 Phases=1 Model=8 zipv=(0.5,0,0.5,1,0,0,0) kv=0.1200 pf=0.92 kW=1.150685 Daily=RES1_25
New Load.BT_331474164_331731517_1 Bus1=node_413788184.1.4 Phases=1 Model=8 zipv=(0.5,0,0.5,1,0,0,0) kv=0.1200 pf=0.92 kW=0.309589 Daily=RES1_25
New Load.BT_331474164_331731517_2 Bus1=node_413788184.2.4 Phases=1 Model=8 zipv=(0.5,0,0.5,1,0,0,0) kv=0.1200 pf=0.92 kW=0.309589 Daily=RES1_25
New Load.BT_331242290_331724143_1 Bus1=node_412073034.1.4 Phases=1 Model=8 zipv=(0.5,0,0.5,1,0,0,0) kv=0.1270 pf=0.92 kW=3.989041 Daily=RES1_25
New Load.BT_331242290_331724143_2 Bus1=node_412073034.2.4 Phases=1 Model=8 zipv=(0.5,0,0.5,1,0,0,0) kv=0.1270 pf=0.92 kW=3.989041 Daily=RES1_25
New Load.BT_331242290_331724143_3 Bus1=node_412073034.3.4 Phases=1 Model=8 zipv=(0.5,0,0.5,1,0,0,0) kv=0.1270 pf=0.92 kW=3.989041 Daily=RES1_25
New Load.BT_331570613_331724021_1 Bus1=node_413791211.1.4 Phases=1 Model=8 zipv=(0.5,0,0.5,1,0,0,0) kv=0.1200 pf=0.92 kW=0.263014 Daily=RES1_25
New Load.BT_331570613_331724021_2 Bus1=node_413791211.2.4 Phases=1 Model=8 zipv=(0.5,0,0.5,1,0,0,0) kv=0.1200 pf=0.92 kW=0.263014 Daily=RES1_25
New Load.BT_331367891_331731563_1 Bus1=node_413874357.1.4 Phases=1 Model=8 zipv=(0.5,0,0.5,1,0,0,0) kv=0.1270 pf=0.92 kW=3.787215 Daily=RES1_25
New Load.BT_331367891_331731563_2 Bus1=node_413874357.2.4 Phases=1 Model=8 zipv=(0.5,0,0.5,1,0,0,0) kv=0.1270 pf=0.92 kW=3.787215 Daily=RES1_25
New Load.BT_331367891_331731563_3 Bus1=node_413874357.3.4 Phases=1 Model=8 zipv=(0.5,0,0.5,1,0,0,0) kv=0.1270 pf=0.92 kW=3.787215 Daily=RES1_25
New Load.BT_331571383_331724152_1 Bus1=node_413789051.1.4 Phases=1 Model=8 zipv=(0.5,0,0.5,1,0,0,0) kv=0.1270 pf=0.92 kW=9.332877 Daily=RES1_25
New Load.BT_331571383_331724152_2 Bus1=node_413789051.2.4 Phases=1 Model=8 zipv=(0.5,0,0.5,1,0,0,0) kv=0.1270 pf=0.92 kW=9.332877 Daily=RES1_25
New Load.BT_331571383_331724152_3 Bus1=node_413789051.3.4 Phases=1 Model=8 zipv=(0.5,0,0.5,1,0,0,0) kv=0.1270 pf=0.92 kW=9.332877 Daily=RES1_25
New Load.BT_331242559_331722412_1 Bus1=node_413848570.1.4 Phases=1 Model=8 zipv=(0.5,0,0.5,1,0,0,0) kv=0.1200 pf=0.92 kW=3.484247 Daily=RES1_25
New Load.BT_331242559_331722412_2 Bus1=node_413848570.2.4 Phases=1 Model=8 zipv=(0.5,0,0.5,1,0,0,0) kv=0.1200 pf=0.92 kW=3.484247 Daily=RES1_25
New Load.BT_331572074_331573504_1 Bus1=node_413876334.1.4 Phases=1 Model=8 zipv=(0.5,0,0.5,1,0,0,0) kv=0.1270 pf=0.92 kW=4.428311 Daily=RES1_25
New Load.BT_331572074_331573504_2 Bus1=node_413876334.2.4 Phases=1 Model=8 zipv=(0.5,0,0.5,1,0,0,0) kv=0.1270 pf=0.92 kW=4.428311 Daily=RES1_25
New Load.BT_331572074_331573504_3 Bus1=node_413876334.3.4 Phases=1 Model=8 zipv=(0.5,0,0.5,1,0,0,0) kv=0.1270 pf=0.92 kW=4.428311 Daily=RES1_25
New Load.BT_331473071_331729976_1 Bus1=node_415975460.1.4 Phases=1 Model=8 zipv=(0.5,0,0.5,1,0,0,0) kv=0.1270 pf=0.92 kW=4.539269 Daily=RES1_25
New Load.BT_331473071_331729976_2 Bus1=node_415975460.2.4 Phases=1 Model=8 zipv=(0.5,0,0.5,1,0,0,0) kv=0.1270 pf=0.92 kW=4.539269 Daily=RES1_25
New Load.BT_331473071_331729976_3 Bus1=node_415975460.3.4 Phases=1 Model=8 zipv=(0.5,0,0.5,1,0,0,0) kv=0.1270 pf=0.92 kW=4.539269 Daily=RES1_25
New Load.BT_331366976_331766629_1 Bus1=node_413850229.1.4 Phases=1 Model=8 zipv=(0.5,0,0.5,1,0,0,0) kv=0.1270 pf=0.92 kW=2.335616 Daily=RES1_25
New Load.BT_331366976_331766629_2 Bus1=node_413850229.2.4 Phases=1 Model=8 zipv=(0.5,0,0.5,1,0,0,0) kv=0.1270 pf=0.92 kW=2.335616 Daily=RES1_25
New Load.BT_331366976_331766629_3 Bus1=node_413850229.3.4 Phases=1 Model=8 zipv=(0.5,0,0.5,1,0,0,0) kv=0.1270 pf=0.92 kW=2.335616 Daily=RES1_25
New Load.BT_331365865_331731409_1 Bus1=node_413874948.1.4 Phases=1 Model=8 zipv=(0.5,0,0.5,1,0,0,0) kv=0.1270 pf=0.92 kW=3.725571 Daily=RES1_25
New Load.BT_331365865_331731409_2 Bus1=node_413874948.2.4 Phases=1 Model=8 zipv=(0.5,0,0.5,1,0,0,0) kv=0.1270 pf=0.92 kW=3.725571 Daily=RES1_25
New Load.BT_331365865_331731409_3 Bus1=node_413874948.3.4 Phases=1 Model=8 zipv=(0.5,0,0.5,1,0,0,0) kv=0.1270 pf=0.92 kW=3.725571 Daily=RES1_25
New Load.BT_331473883_331731585_1 Bus1=node_413849923.1.4 Phases=1 Model=8 zipv=(0.5,0,0.5,1,0,0,0) kv=0.1270 pf=0.92 kW=23.013242 Daily=COM1_26
New Load.BT_331473883_331731585_2 Bus1=node_413849923.2.4 Phases=1 Model=8 zipv=(0.5,0,0.5,1,0,0,0) kv=0.1270 pf=0.92 kW=23.013242 Daily=COM1_26
New Load.BT_331473883_331731585_3 Bus1=node_413849923.3.4 Phases=1 Model=8 zipv=(0.5,0,0.5,1,0,0,0) kv=0.1270 pf=0.92 kW=23.013242 Daily=COM1_26
New Load.BT_331472652_331777239_1 Bus1=node_412073148.1.4 Phases=1 Model=8 zipv=(0.5,0,0.5,1,0,0,0) kv=0.1270 pf=0.92 kW=6.255708 Daily=RES1_25
New Load.BT_331472652_331777239_2 Bus1=node_412073148.2.4 Phases=1 Model=8 zipv=(0.5,0,0.5,1,0,0,0) kv=0.1270 pf=0.92 kW=6.255708 Daily=RES1_25
New Load.BT_331472652_331777239_3 Bus1=node_412073148.3.4 Phases=1 Model=8 zipv=(0.5,0,0.5,1,0,0,0) kv=0.1270 pf=0.92 kW=6.255708 Daily=RES1_25
New Load.BT_331572194_331763102_1 Bus1=node_413829255.1.4 Phases=1 Model=8 zipv=(0.5,0,0.5,1,0,0,0) kv=0.1270 pf=0.92 kW=6.150228 Daily=RES1_25
New Load.BT_331572194_331763102_2 Bus1=node_413829255.2.4 Phases=1 Model=8 zipv=(0.5,0,0.5,1,0,0,0) kv=0.1270 pf=0.92 kW=6.150228 Daily=RES1_25
New Load.BT_331572194_331763102_3 Bus1=node_413829255.3.4 Phases=1 Model=8 zipv=(0.5,0,0.5,1,0,0,0) kv=0.1270 pf=0.92 kW=6.150228 Daily=RES1_25
New Load.BT_331364344_331763139_1 Bus1=node_413873679.1.4 Phases=1 Model=8 zipv=(0.5,0,0.5,1,0,0,0) kv=0.1270 pf=0.92 kW=2.573516 Daily=RES1_25
New Load.BT_331364344_331763139_2 Bus1=node_413873679.2.4 Phases=1 Model=8 zipv=(0.5,0,0.5,1,0,0,0) kv=0.1270 pf=0.92 kW=2.573516 Daily=RES1_25
New Load.BT_331364344_331763139_3 Bus1=node_413873679.3.4 Phases=1 Model=8 zipv=(0.5,0,0.5,1,0,0,0) kv=0.1270 pf=0.92 kW=2.573516 Daily=RES1_25
New Load.BT_331473022_1389882028_1 Bus1=node_413790206.1.4 Phases=1 Model=8 zipv=(0.5,0,0.5,1,0,0,0) kv=0.1200 pf=0.92 kW=1.047260 Daily=RES1_25
New Load.BT_331473022_1389882028_2 Bus1=node_413790206.2.4 Phases=1 Model=8 zipv=(0.5,0,0.5,1,0,0,0) kv=0.1200 pf=0.92 kW=1.047260 Daily=RES1_25
New Load.BT_331241969_331573220_1 Bus1=node_413848951.1.4 Phases=1 Model=8 zipv=(0.5,0,0.5,1,0,0,0) kv=0.1200 pf=0.92 kW=0.283562 Daily=RES1_25
New Load.BT_331241969_331573220_2 Bus1=node_413848951.2.4 Phases=1 Model=8 zipv=(0.5,0,0.5,1,0,0,0) kv=0.1200 pf=0.92 kW=0.283562 Daily=RES1_25
New Load.BT_331474955_331721089_1 Bus1=node_413848246.1.4 Phases=1 Model=8 zipv=(0.5,0,0.5,1,0,0,0) kv=0.1270 pf=0.92 kW=5.796804 Daily=COM1_26
New Load.BT_331474955_331721089_2 Bus1=node_413848246.2.4 Phases=1 Model=8 zipv=(0.5,0,0.5,1,0,0,0) kv=0.1270 pf=0.92 kW=5.796804 Daily=COM1_26
New Load.BT_331474955_331721089_3 Bus1=node_413848246.3.4 Phases=1 Model=8 zipv=(0.5,0,0.5,1,0,0,0) kv=0.1270 pf=0.92 kW=5.796804 Daily=COM1_26
New Load.BT_331239548_331763145_1 Bus1=node_413875230.1.4 Phases=1 Model=8 zipv=(0.5,0,0.5,1,0,0,0) kv=0.1270 pf=0.92 kW=3.698174 Daily=RES1_25
New Load.BT_331239548_331763145_2 Bus1=node_413875230.2.4 Phases=1 Model=8 zipv=(0.5,0,0.5,1,0,0,0) kv=0.1270 pf=0.92 kW=3.698174 Daily=RES1_25
New Load.BT_331239548_331763145_3 Bus1=node_413875230.3.4 Phases=1 Model=8 zipv=(0.5,0,0.5,1,0,0,0) kv=0.1270 pf=0.92 kW=3.698174 Daily=RES1_25
New Load.BT_331471501_331766106_1 Bus1=node_413848627.1.4 Phases=1 Model=8 zipv=(0.5,0,0.5,1,0,0,0) kv=0.1270 pf=0.92 kW=1.649772 Daily=RES1_25
New Load.BT_331471501_331766106_2 Bus1=node_413848627.2.4 Phases=1 Model=8 zipv=(0.5,0,0.5,1,0,0,0) kv=0.1270 pf=0.92 kW=1.649772 Daily=RES1_25
New Load.BT_331471501_331766106_3 Bus1=node_413848627.3.4 Phases=1 Model=8 zipv=(0.5,0,0.5,1,0,0,0) kv=0.1270 pf=0.92 kW=1.649772 Daily=RES1_25
New Load.BT_331571792_331722633_1 Bus1=node_417230141.1.4 Phases=1 Model=8 zipv=(0.5,0,0.5,1,0,0,0) kv=0.1200 pf=0.92 kW=0.486986 Daily=RES1_25
New Load.BT_331571792_331722633_2 Bus1=node_417230141.2.4 Phases=1 Model=8 zipv=(0.5,0,0.5,1,0,0,0) kv=0.1200 pf=0.92 kW=0.486986 Daily=RES1_25
New Load.BT_331241418_1379177854_1 Bus1=node_413769136.1.4 Phases=1 Model=8 zipv=(0.5,0,0.5,1,0,0,0) kv=0.1270 pf=0.92 kW=7.834247 Daily=RES1_25
New Load.BT_331241418_1379177854_2 Bus1=node_413769136.2.4 Phases=1 Model=8 zipv=(0.5,0,0.5,1,0,0,0) kv=0.1270 pf=0.92 kW=7.834247 Daily=RES1_25
New Load.BT_331241418_1379177854_3 Bus1=node_413769136.3.4 Phases=1 Model=8 zipv=(0.5,0,0.5,1,0,0,0) kv=0.1270 pf=0.92 kW=7.834247 Daily=RES1_25
New Load.BT_331471443_331722565_1 Bus1=node_482334591.1.4 Phases=1 Model=8 zipv=(0.5,0,0.5,1,0,0,0) kv=0.1270 pf=0.92 kW=9.005479 Daily=RES1_25
New Load.BT_331471443_331722565_2 Bus1=node_482334591.2.4 Phases=1 Model=8 zipv=(0.5,0,0.5,1,0,0,0) kv=0.1270 pf=0.92 kW=9.005479 Daily=RES1_25
New Load.BT_331471443_331722565_3 Bus1=node_482334591.3.4 Phases=1 Model=8 zipv=(0.5,0,0.5,1,0,0,0) kv=0.1270 pf=0.92 kW=9.005479 Daily=RES1_25
New Load.BT_331474364_331779872_1 Bus1=node_414662740.1.4 Phases=1 Model=8 zipv=(0.5,0,0.5,1,0,0,0) kv=0.1270 pf=0.92 kW=7.587671 Daily=RES1_25
New Load.BT_331474364_331779872_2 Bus1=node_414662740.2.4 Phases=1 Model=8 zipv=(0.5,0,0.5,1,0,0,0) kv=0.1270 pf=0.92 kW=7.587671 Daily=RES1_25
New Load.BT_331474364_331779872_3 Bus1=node_414662740.3.4 Phases=1 Model=8 zipv=(0.5,0,0.5,1,0,0,0) kv=0.1270 pf=0.92 kW=7.587671 Daily=RES1_25
New Load.BT_331472102_331764972_1 Bus1=node_414689578.1.4 Phases=1 Model=8 zipv=(0.5,0,0.5,1,0,0,0) kv=0.1270 pf=0.92 kW=5.912329 Daily=RES1_25
New Load.BT_331472102_331764972_2 Bus1=node_414689578.2.4 Phases=1 Model=8 zipv=(0.5,0,0.5,1,0,0,0) kv=0.1270 pf=0.92 kW=5.912329 Daily=RES1_25
New Load.BT_331472102_331764972_3 Bus1=node_414689578.3.4 Phases=1 Model=8 zipv=(0.5,0,0.5,1,0,0,0) kv=0.1270 pf=0.92 kW=5.912329 Daily=RES1_25
New Load.BT_331367325_331573664_1 Bus1=node_413810130.1.4 Phases=1 Model=8 zipv=(0.5,0,0.5,1,0,0,0) kv=0.1200 pf=0.92 kW=1.862329 Daily=RES1_25
New Load.BT_331367325_331573664_2 Bus1=node_413810130.2.4 Phases=1 Model=8 zipv=(0.5,0,0.5,1,0,0,0) kv=0.1200 pf=0.92 kW=1.862329 Daily=RES1_25
New Load.BT_331240282_331763086_1 Bus1=node_413873160.1.4 Phases=1 Model=8 zipv=(0.5,0,0.5,1,0,0,0) kv=0.1270 pf=0.92 kW=2.787215 Daily=RES1_25
New Load.BT_331240282_331763086_2 Bus1=node_413873160.2.4 Phases=1 Model=8 zipv=(0.5,0,0.5,1,0,0,0) kv=0.1270 pf=0.92 kW=2.787215 Daily=RES1_25
New Load.BT_331240282_331763086_3 Bus1=node_413873160.3.4 Phases=1 Model=8 zipv=(0.5,0,0.5,1,0,0,0) kv=0.1270 pf=0.92 kW=2.787215 Daily=RES1_25
New Load.BT_331571565_331722549_1 Bus1=node_413876472.1.4 Phases=1 Model=8 zipv=(0.5,0,0.5,1,0,0,0) kv=0.1270 pf=0.92 kW=3.961187 Daily=RES1_25
New Load.BT_331571565_331722549_2 Bus1=node_413876472.2.4 Phases=1 Model=8 zipv=(0.5,0,0.5,1,0,0,0) kv=0.1270 pf=0.92 kW=3.961187 Daily=RES1_25
New Load.BT_331571565_331722549_3 Bus1=node_413876472.3.4 Phases=1 Model=8 zipv=(0.5,0,0.5,1,0,0,0) kv=0.1270 pf=0.92 kW=3.961187 Daily=RES1_25
New Load.BT_331473120_1707174201_1 Bus1=node_413811576.1.4 Phases=1 Model=8 zipv=(0.5,0,0.5,1,0,0,0) kv=0.1270 pf=0.92 kW=9.487671 Daily=RES1_25
New Load.BT_331473120_1707174201_2 Bus1=node_413811576.2.4 Phases=1 Model=8 zipv=(0.5,0,0.5,1,0,0,0) kv=0.1270 pf=0.92 kW=9.487671 Daily=RES1_25
New Load.BT_331473120_1707174201_3 Bus1=node_413811576.3.4 Phases=1 Model=8 zipv=(0.5,0,0.5,1,0,0,0) kv=0.1270 pf=0.92 kW=9.487671 Daily=RES1_25
New Load.BT_1934812097_1934812096_1 Bus1=node_2254384401.1.4 Phases=1 Model=8 zipv=(0.5,0,0.5,1,0,0,0) kv=0.1270 pf=0.92 kW=0.066667 Daily=RES1_25
New Load.BT_1934812097_1934812096_2 Bus1=node_2254384401.2.4 Phases=1 Model=8 zipv=(0.5,0,0.5,1,0,0,0) kv=0.1270 pf=0.92 kW=0.066667 Daily=RES1_25
New Load.BT_1934812097_1934812096_3 Bus1=node_2254384401.3.4 Phases=1 Model=8 zipv=(0.5,0,0.5,1,0,0,0) kv=0.1270 pf=0.92 kW=0.066667 Daily=RES1_25
New Load.BT_331474025_331728933_1 Bus1=node_413874039.1.4 Phases=1 Model=8 zipv=(0.5,0,0.5,1,0,0,0) kv=0.1200 pf=0.92 kW=1.011644 Daily=RES1_25
New Load.BT_331474025_331728933_2 Bus1=node_413874039.2.4 Phases=1 Model=8 zipv=(0.5,0,0.5,1,0,0,0) kv=0.1200 pf=0.92 kW=1.011644 Daily=RES1_25
New Load.BT_330775034_331763923_1 Bus1=node_415391665.1.4 Phases=1 Model=8 zipv=(0.5,0,0.5,1,0,0,0) kv=0.1270 pf=0.92 kW=0.647945 Daily=RES1_25
New Load.BT_330775034_331763923_2 Bus1=node_415391665.2.4 Phases=1 Model=8 zipv=(0.5,0,0.5,1,0,0,0) kv=0.1270 pf=0.92 kW=0.647945 Daily=RES1_25
New Load.BT_330775034_331763923_3 Bus1=node_415391665.3.4 Phases=1 Model=8 zipv=(0.5,0,0.5,1,0,0,0) kv=0.1270 pf=0.92 kW=0.647945 Daily=RES1_25
New Load.BT_330774208_965037960_1 Bus1=node_423628916.1.4 Phases=1 Model=8 zipv=(0.5,0,0.5,1,0,0,0) kv=0.1200 pf=0.92 kW=0.511644 Daily=RES1_25
New Load.BT_330774208_965037960_2 Bus1=node_423628916.2.4 Phases=1 Model=8 zipv=(0.5,0,0.5,1,0,0,0) kv=0.1200 pf=0.92 kW=0.511644 Daily=RES1_25
New Load.BT_331367003_331766643_1 Bus1=node_423629534.1.4 Phases=1 Model=8 zipv=(0.5,0,0.5,1,0,0,0) kv=0.1270 pf=0.92 kW=2.589498 Daily=RES1_25
New Load.BT_331367003_331766643_2 Bus1=node_423629534.2.4 Phases=1 Model=8 zipv=(0.5,0,0.5,1,0,0,0) kv=0.1270 pf=0.92 kW=2.589498 Daily=RES1_25
New Load.BT_331367003_331766643_3 Bus1=node_423629534.3.4 Phases=1 Model=8 zipv=(0.5,0,0.5,1,0,0,0) kv=0.1270 pf=0.92 kW=2.589498 Daily=RES1_25
New Load.BT_331571364_331763318_1 Bus1=node_413848867.1.4 Phases=1 Model=8 zipv=(0.5,0,0.5,1,0,0,0) kv=0.1270 pf=0.92 kW=1.452968 Daily=RES1_25
New Load.BT_331571364_331763318_2 Bus1=node_413848867.2.4 Phases=1 Model=8 zipv=(0.5,0,0.5,1,0,0,0) kv=0.1270 pf=0.92 kW=1.452968 Daily=RES1_25
New Load.BT_331571364_331763318_3 Bus1=node_413848867.3.4 Phases=1 Model=8 zipv=(0.5,0,0.5,1,0,0,0) kv=0.1270 pf=0.92 kW=1.452968 Daily=RES1_25
New Load.BT_331240019_331766709_1 Bus1=node_412072779.1.4 Phases=1 Model=8 zipv=(0.5,0,0.5,1,0,0,0) kv=0.1270 pf=0.92 kW=8.466210 Daily=RES1_25
New Load.BT_331240019_331766709_2 Bus1=node_412072779.2.4 Phases=1 Model=8 zipv=(0.5,0,0.5,1,0,0,0) kv=0.1270 pf=0.92 kW=8.466210 Daily=RES1_25
New Load.BT_331240019_331766709_3 Bus1=node_412072779.3.4 Phases=1 Model=8 zipv=(0.5,0,0.5,1,0,0,0) kv=0.1270 pf=0.92 kW=8.466210 Daily=RES1_25
New Load.BT_330774297_2609682808_1 Bus1=node_413768032.1.4 Phases=1 Model=8 zipv=(0.5,0,0.5,1,0,0,0) kv=0.1270 pf=0.92 kW=3.454795 Daily=RES1_25
New Load.BT_330774297_2609682808_2 Bus1=node_413768032.2.4 Phases=1 Model=8 zipv=(0.5,0,0.5,1,0,0,0) kv=0.1270 pf=0.92 kW=3.454795 Daily=RES1_25
New Load.BT_330774297_2609682808_3 Bus1=node_413768032.3.4 Phases=1 Model=8 zipv=(0.5,0,0.5,1,0,0,0) kv=0.1270 pf=0.92 kW=3.454795 Daily=RES1_25
New Load.BT_331242484_331776992_1 Bus1=node_413874441.1.4 Phases=1 Model=8 zipv=(0.5,0,0.5,1,0,0,0) kv=0.1270 pf=0.92 kW=4.189498 Daily=RES1_25
New Load.BT_331242484_331776992_2 Bus1=node_413874441.2.4 Phases=1 Model=8 zipv=(0.5,0,0.5,1,0,0,0) kv=0.1270 pf=0.92 kW=4.189498 Daily=RES1_25
New Load.BT_331242484_331776992_3 Bus1=node_413874441.3.4 Phases=1 Model=8 zipv=(0.5,0,0.5,1,0,0,0) kv=0.1270 pf=0.92 kW=4.189498 Daily=RES1_25
New Load.BT_331242344_331777232_1 Bus1=node_413769496.1.4 Phases=1 Model=8 zipv=(0.5,0,0.5,1,0,0,0) kv=0.1270 pf=0.92 kW=3.053425 Daily=RES1_25
New Load.BT_331242344_331777232_2 Bus1=node_413769496.2.4 Phases=1 Model=8 zipv=(0.5,0,0.5,1,0,0,0) kv=0.1270 pf=0.92 kW=3.053425 Daily=RES1_25
New Load.BT_331242344_331777232_3 Bus1=node_413769496.3.4 Phases=1 Model=8 zipv=(0.5,0,0.5,1,0,0,0) kv=0.1270 pf=0.92 kW=3.053425 Daily=RES1_25
New Load.BT_331572048_589853898_1 Bus1=node_413850220.1.4 Phases=1 Model=8 zipv=(0.5,0,0.5,1,0,0,0) kv=0.1270 pf=0.92 kW=3.416438 Daily=RES1_25
New Load.BT_331572048_589853898_2 Bus1=node_413850220.2.4 Phases=1 Model=8 zipv=(0.5,0,0.5,1,0,0,0) kv=0.1270 pf=0.92 kW=3.416438 Daily=RES1_25
New Load.BT_331572048_589853898_3 Bus1=node_413850220.3.4 Phases=1 Model=8 zipv=(0.5,0,0.5,1,0,0,0) kv=0.1270 pf=0.92 kW=3.416438 Daily=RES1_25
New Load.BT_331366191_331724314_1 Bus1=node_413850139.1.4 Phases=1 Model=8 zipv=(0.5,0,0.5,1,0,0,0) kv=0.1270 pf=0.92 kW=2.647032 Daily=RES1_25
New Load.BT_331366191_331724314_2 Bus1=node_413850139.2.4 Phases=1 Model=8 zipv=(0.5,0,0.5,1,0,0,0) kv=0.1270 pf=0.92 kW=2.647032 Daily=RES1_25
New Load.BT_331366191_331724314_3 Bus1=node_413850139.3.4 Phases=1 Model=8 zipv=(0.5,0,0.5,1,0,0,0) kv=0.1270 pf=0.92 kW=2.647032 Daily=RES1_25
New Load.BT_331365480_1001682850_1 Bus1=node_413768785.1.4 Phases=1 Model=8 zipv=(0.5,0,0.5,1,0,0,0) kv=0.1270 pf=0.92 kW=4.380365 Daily=RES1_25
New Load.BT_331365480_1001682850_2 Bus1=node_413768785.2.4 Phases=1 Model=8 zipv=(0.5,0,0.5,1,0,0,0) kv=0.1270 pf=0.92 kW=4.380365 Daily=RES1_25
New Load.BT_331365480_1001682850_3 Bus1=node_413768785.3.4 Phases=1 Model=8 zipv=(0.5,0,0.5,1,0,0,0) kv=0.1270 pf=0.92 kW=4.380365 Daily=RES1_25
New Load.BT_330773714_331779933_1 Bus1=node_413790266.1.4 Phases=1 Model=8 zipv=(0.5,0,0.5,1,0,0,0) kv=0.1270 pf=0.92 kW=5.668037 Daily=RES1_25
New Load.BT_330773714_331779933_2 Bus1=node_413790266.2.4 Phases=1 Model=8 zipv=(0.5,0,0.5,1,0,0,0) kv=0.1270 pf=0.92 kW=5.668037 Daily=RES1_25
New Load.BT_330773714_331779933_3 Bus1=node_413790266.3.4 Phases=1 Model=8 zipv=(0.5,0,0.5,1,0,0,0) kv=0.1270 pf=0.92 kW=5.668037 Daily=RES1_25
New Load.BT_331366476_331573501_1 Bus1=node_413767126.1.4 Phases=1 Model=8 zipv=(0.5,0,0.5,1,0,0,0) kv=0.1270 pf=0.92 kW=6.218265 Daily=RES1_25
New Load.BT_331366476_331573501_2 Bus1=node_413767126.2.4 Phases=1 Model=8 zipv=(0.5,0,0.5,1,0,0,0) kv=0.1270 pf=0.92 kW=6.218265 Daily=RES1_25
New Load.BT_331366476_331573501_3 Bus1=node_413767126.3.4 Phases=1 Model=8 zipv=(0.5,0,0.5,1,0,0,0) kv=0.1270 pf=0.92 kW=6.218265 Daily=RES1_25
New Load.BT_331240926_331763147_1 Bus1=node_413767423.1.4 Phases=1 Model=8 zipv=(0.5,0,0.5,1,0,0,0) kv=0.1270 pf=0.92 kW=7.298174 Daily=RES1_25
New Load.BT_331240926_331763147_2 Bus1=node_413767423.2.4 Phases=1 Model=8 zipv=(0.5,0,0.5,1,0,0,0) kv=0.1270 pf=0.92 kW=7.298174 Daily=RES1_25
New Load.BT_331240926_331763147_3 Bus1=node_413767423.3.4 Phases=1 Model=8 zipv=(0.5,0,0.5,1,0,0,0) kv=0.1270 pf=0.92 kW=7.298174 Daily=RES1_25
New Load.BT_331239931_331763136_1 Bus1=node_413850463.1.4 Phases=1 Model=8 zipv=(0.5,0,0.5,1,0,0,0) kv=0.1270 pf=0.92 kW=16.321461 Daily=RES1_25
New Load.BT_331239931_331763136_2 Bus1=node_413850463.2.4 Phases=1 Model=8 zipv=(0.5,0,0.5,1,0,0,0) kv=0.1270 pf=0.92 kW=16.321461 Daily=RES1_25
New Load.BT_331239931_331763136_3 Bus1=node_413850463.3.4 Phases=1 Model=8 zipv=(0.5,0,0.5,1,0,0,0) kv=0.1270 pf=0.92 kW=16.321461 Daily=RES1_25
New Load.BT_331365635_331724136_1 Bus1=node_482334516.1.4 Phases=1 Model=8 zipv=(0.5,0,0.5,1,0,0,0) kv=0.1270 pf=0.92 kW=5.284932 Daily=RES1_25
New Load.BT_331365635_331724136_2 Bus1=node_482334516.2.4 Phases=1 Model=8 zipv=(0.5,0,0.5,1,0,0,0) kv=0.1270 pf=0.92 kW=5.284932 Daily=RES1_25
New Load.BT_331365635_331724136_3 Bus1=node_482334516.3.4 Phases=1 Model=8 zipv=(0.5,0,0.5,1,0,0,0) kv=0.1270 pf=0.92 kW=5.284932 Daily=RES1_25
New Load.BT_331239503_515889802_1 Bus1=node_414693013.1.4 Phases=1 Model=8 zipv=(0.5,0,0.5,1,0,0,0) kv=0.1270 pf=0.92 kW=1.983562 Daily=RES1_25
New Load.BT_331239503_515889802_2 Bus1=node_414693013.2.4 Phases=1 Model=8 zipv=(0.5,0,0.5,1,0,0,0) kv=0.1270 pf=0.92 kW=1.983562 Daily=RES1_25
New Load.BT_331239503_515889802_3 Bus1=node_414693013.3.4 Phases=1 Model=8 zipv=(0.5,0,0.5,1,0,0,0) kv=0.1270 pf=0.92 kW=1.983562 Daily=RES1_25
New Load.BT_331366466_331779865_1 Bus1=node_423629645.1.4 Phases=1 Model=8 zipv=(0.5,0,0.5,1,0,0,0) kv=0.1270 pf=0.92 kW=4.327854 Daily=RES1_25
New Load.BT_331366466_331779865_2 Bus1=node_423629645.2.4 Phases=1 Model=8 zipv=(0.5,0,0.5,1,0,0,0) kv=0.1270 pf=0.92 kW=4.327854 Daily=RES1_25
New Load.BT_331366466_331779865_3 Bus1=node_423629645.3.4 Phases=1 Model=8 zipv=(0.5,0,0.5,1,0,0,0) kv=0.1270 pf=0.92 kW=4.327854 Daily=RES1_25
New Load.BT_331475095_331731594_1 Bus1=node_413825712.1.4 Phases=1 Model=8 zipv=(0.5,0,0.5,1,0,0,0) kv=0.1270 pf=0.92 kW=6.805023 Daily=RES1_25
New Load.BT_331475095_331731594_2 Bus1=node_413825712.2.4 Phases=1 Model=8 zipv=(0.5,0,0.5,1,0,0,0) kv=0.1270 pf=0.92 kW=6.805023 Daily=RES1_25
New Load.BT_331475095_331731594_3 Bus1=node_413825712.3.4 Phases=1 Model=8 zipv=(0.5,0,0.5,1,0,0,0) kv=0.1270 pf=0.92 kW=6.805023 Daily=RES1_25
New Load.BT_331475283_331766692_1 Bus1=node_413829252.1.4 Phases=1 Model=8 zipv=(0.5,0,0.5,1,0,0,0) kv=0.1270 pf=0.92 kW=8.063470 Daily=COM1_26
New Load.BT_331475283_331766692_2 Bus1=node_413829252.2.4 Phases=1 Model=8 zipv=(0.5,0,0.5,1,0,0,0) kv=0.1270 pf=0.92 kW=8.063470 Daily=COM1_26
New Load.BT_331475283_331766692_3 Bus1=node_413829252.3.4 Phases=1 Model=8 zipv=(0.5,0,0.5,1,0,0,0) kv=0.1270 pf=0.92 kW=8.063470 Daily=COM1_26
New Load.BT_622402876_1457862917_1 Bus1=node_890653532.1.4 Phases=1 Model=8 zipv=(0.5,0,0.5,1,0,0,0) kv=0.1270 pf=0.92 kW=0.771233 Daily=RES1_25
New Load.BT_622402876_1457862917_2 Bus1=node_890653532.2.4 Phases=1 Model=8 zipv=(0.5,0,0.5,1,0,0,0) kv=0.1270 pf=0.92 kW=0.771233 Daily=RES1_25
New Load.BT_622402876_1457862917_3 Bus1=node_890653532.3.4 Phases=1 Model=8 zipv=(0.5,0,0.5,1,0,0,0) kv=0.1270 pf=0.92 kW=0.771233 Daily=RES1_25
New Load.BT_331241578_331764696_1 Bus1=node_415976063.1.4 Phases=1 Model=8 zipv=(0.5,0,0.5,1,0,0,0) kv=0.1270 pf=0.92 kW=3.011416 Daily=RES1_25
New Load.BT_331241578_331764696_2 Bus1=node_415976063.2.4 Phases=1 Model=8 zipv=(0.5,0,0.5,1,0,0,0) kv=0.1270 pf=0.92 kW=3.011416 Daily=RES1_25
New Load.BT_331241578_331764696_3 Bus1=node_415976063.3.4 Phases=1 Model=8 zipv=(0.5,0,0.5,1,0,0,0) kv=0.1270 pf=0.92 kW=3.011416 Daily=RES1_25
New Load.BT_331365784_331766149_1 Bus1=node_423629417.1.4 Phases=1 Model=8 zipv=(0.5,0,0.5,1,0,0,0) kv=0.1200 pf=0.92 kW=0.178767 Daily=RES1_25
New Load.BT_331365784_331766149_2 Bus1=node_423629417.2.4 Phases=1 Model=8 zipv=(0.5,0,0.5,1,0,0,0) kv=0.1200 pf=0.92 kW=0.178767 Daily=RES1_25
New Load.BT_331571129_331763098_1 Bus1=node_413873313.1.4 Phases=1 Model=8 zipv=(0.5,0,0.5,1,0,0,0) kv=0.1270 pf=0.92 kW=1.075342 Daily=COM1_26
New Load.BT_331571129_331763098_2 Bus1=node_413873313.2.4 Phases=1 Model=8 zipv=(0.5,0,0.5,1,0,0,0) kv=0.1270 pf=0.92 kW=1.075342 Daily=COM1_26
New Load.BT_331571129_331763098_3 Bus1=node_413873313.3.4 Phases=1 Model=8 zipv=(0.5,0,0.5,1,0,0,0) kv=0.1270 pf=0.92 kW=1.075342 Daily=COM1_26
New Load.BT_330774131_331731566_1 Bus1=node_412072920.1.4 Phases=1 Model=8 zipv=(0.5,0,0.5,1,0,0,0) kv=0.1270 pf=0.92 kW=5.627397 Daily=RES1_25
New Load.BT_330774131_331731566_2 Bus1=node_412072920.2.4 Phases=1 Model=8 zipv=(0.5,0,0.5,1,0,0,0) kv=0.1270 pf=0.92 kW=5.627397 Daily=RES1_25
New Load.BT_330774131_331731566_3 Bus1=node_412072920.3.4 Phases=1 Model=8 zipv=(0.5,0,0.5,1,0,0,0) kv=0.1270 pf=0.92 kW=5.627397 Daily=RES1_25
New Load.BT_331475039_331722592_1 Bus1=node_413768899.1.4 Phases=1 Model=8 zipv=(0.5,0,0.5,1,0,0,0) kv=0.1270 pf=0.92 kW=3.430594 Daily=RES1_25
New Load.BT_331475039_331722592_2 Bus1=node_413768899.2.4 Phases=1 Model=8 zipv=(0.5,0,0.5,1,0,0,0) kv=0.1270 pf=0.92 kW=3.430594 Daily=RES1_25
New Load.BT_331475039_331722592_3 Bus1=node_413768899.3.4 Phases=1 Model=8 zipv=(0.5,0,0.5,1,0,0,0) kv=0.1270 pf=0.92 kW=3.430594 Daily=RES1_25
New Load.BT_331239820_331573919_1 Bus1=node_416249012.1.4 Phases=1 Model=8 zipv=(0.5,0,0.5,1,0,0,0) kv=0.1270 pf=0.92 kW=1.372146 Daily=RES1_25
New Load.BT_331239820_331573919_2 Bus1=node_416249012.2.4 Phases=1 Model=8 zipv=(0.5,0,0.5,1,0,0,0) kv=0.1270 pf=0.92 kW=1.372146 Daily=RES1_25
New Load.BT_331239820_331573919_3 Bus1=node_416249012.3.4 Phases=1 Model=8 zipv=(0.5,0,0.5,1,0,0,0) kv=0.1270 pf=0.92 kW=1.372146 Daily=RES1_25
New Load.BT_331474258_914291362_1 Bus1=node_413767924.1.4 Phases=1 Model=8 zipv=(0.5,0,0.5,1,0,0,0) kv=0.1270 pf=0.92 kW=3.900000 Daily=RES1_25
New Load.BT_331474258_914291362_2 Bus1=node_413767924.2.4 Phases=1 Model=8 zipv=(0.5,0,0.5,1,0,0,0) kv=0.1270 pf=0.92 kW=3.900000 Daily=RES1_25
New Load.BT_331474258_914291362_3 Bus1=node_413767924.3.4 Phases=1 Model=8 zipv=(0.5,0,0.5,1,0,0,0) kv=0.1270 pf=0.92 kW=3.900000 Daily=RES1_25
New Load.BT_628772304_628772303_1 Bus1=node_896637170.1.4 Phases=1 Model=8 zipv=(0.5,0,0.5,1,0,0,0) kv=0.1270 pf=0.92 kW=1.919178 Daily=RES1_25
New Load.BT_628772304_628772303_2 Bus1=node_896637170.2.4 Phases=1 Model=8 zipv=(0.5,0,0.5,1,0,0,0) kv=0.1270 pf=0.92 kW=1.919178 Daily=RES1_25
New Load.BT_628772304_628772303_3 Bus1=node_896637170.3.4 Phases=1 Model=8 zipv=(0.5,0,0.5,1,0,0,0) kv=0.1270 pf=0.92 kW=1.919178 Daily=RES1_25
New Load.BT_331572143_331766688_1 Bus1=node_413848669.1.4 Phases=1 Model=8 zipv=(0.5,0,0.5,1,0,0,0) kv=0.1270 pf=0.92 kW=9.381735 Daily=COM1_26
New Load.BT_331572143_331766688_2 Bus1=node_413848669.2.4 Phases=1 Model=8 zipv=(0.5,0,0.5,1,0,0,0) kv=0.1270 pf=0.92 kW=9.381735 Daily=COM1_26
New Load.BT_331572143_331766688_3 Bus1=node_413848669.3.4 Phases=1 Model=8 zipv=(0.5,0,0.5,1,0,0,0) kv=0.1270 pf=0.92 kW=9.381735 Daily=COM1_26
New Load.BT_331473447_331573473_1 Bus1=node_413789951.1.4 Phases=1 Model=8 zipv=(0.5,0,0.5,1,0,0,0) kv=0.1270 pf=0.92 kW=6.589954 Daily=RES1_25
New Load.BT_331473447_331573473_2 Bus1=node_413789951.2.4 Phases=1 Model=8 zipv=(0.5,0,0.5,1,0,0,0) kv=0.1270 pf=0.92 kW=6.589954 Daily=RES1_25
New Load.BT_331473447_331573473_3 Bus1=node_413789951.3.4 Phases=1 Model=8 zipv=(0.5,0,0.5,1,0,0,0) kv=0.1270 pf=0.92 kW=6.589954 Daily=RES1_25
New Load.BT_331365403_331724078_1 Bus1=node_413874327.1.4 Phases=1 Model=8 zipv=(0.5,0,0.5,1,0,0,0) kv=0.1270 pf=0.92 kW=5.335160 Daily=RES1_25
New Load.BT_331365403_331724078_2 Bus1=node_413874327.2.4 Phases=1 Model=8 zipv=(0.5,0,0.5,1,0,0,0) kv=0.1270 pf=0.92 kW=5.335160 Daily=RES1_25
New Load.BT_331365403_331724078_3 Bus1=node_413874327.3.4 Phases=1 Model=8 zipv=(0.5,0,0.5,1,0,0,0) kv=0.1270 pf=0.92 kW=5.335160 Daily=RES1_25
New Load.BT_331471672_704636812_1 Bus1=node_413850553.1.4 Phases=1 Model=8 zipv=(0.5,0,0.5,1,0,0,0) kv=0.1270 pf=0.92 kW=2.457078 Daily=RES1_25
New Load.BT_331471672_704636812_2 Bus1=node_413850553.2.4 Phases=1 Model=8 zipv=(0.5,0,0.5,1,0,0,0) kv=0.1270 pf=0.92 kW=2.457078 Daily=RES1_25
New Load.BT_331471672_704636812_3 Bus1=node_413850553.3.4 Phases=1 Model=8 zipv=(0.5,0,0.5,1,0,0,0) kv=0.1270 pf=0.92 kW=2.457078 Daily=RES1_25
New Load.BT_331367978_331722515_1 Bus1=node_413850661.1.4 Phases=1 Model=8 zipv=(0.5,0,0.5,1,0,0,0) kv=0.1270 pf=0.92 kW=4.867580 Daily=RES1_25
New Load.BT_331367978_331722515_2 Bus1=node_413850661.2.4 Phases=1 Model=8 zipv=(0.5,0,0.5,1,0,0,0) kv=0.1270 pf=0.92 kW=4.867580 Daily=RES1_25
New Load.BT_331367978_331722515_3 Bus1=node_413850661.3.4 Phases=1 Model=8 zipv=(0.5,0,0.5,1,0,0,0) kv=0.1270 pf=0.92 kW=4.867580 Daily=RES1_25
New Load.BT_331366775_331779922_1 Bus1=node_413769130.1.4 Phases=1 Model=8 zipv=(0.5,0,0.5,1,0,0,0) kv=0.1270 pf=0.92 kW=4.584475 Daily=RES1_25
New Load.BT_331366775_331779922_2 Bus1=node_413769130.2.4 Phases=1 Model=8 zipv=(0.5,0,0.5,1,0,0,0) kv=0.1270 pf=0.92 kW=4.584475 Daily=RES1_25
...

! --- cargas de media tensao (UCMT_tab) ---
New Load.MT_node_123962198_16 Bus1=node_123962198.1.2.3 Phases=3 Conn=wye Model=8 zipv=(0.5,0,0.5,1,0,0,0) kv=13.8000 pf=0.92 kW=10.8397 Daily=MT5_1
New Load.MT_node_114040154_21 Bus1=node_114040154.1.2.3 Phases=3 Conn=wye Model=8 zipv=(0.5,0,0.5,1,0,0,0) kv=13.8000 pf=0.92 kW=357.6712 Daily=MT1_1
New Load.MT_node_127259249_22 Bus1=node_127259249.1.2.3 Phases=3 Conn=wye Model=8 zipv=(0.5,0,0.5,1,0,0,0) kv=13.8000 pf=0.92 kW=443.0027 Daily=MT1_1
New Load.MT_node_127159399_23 Bus1=node_127159399.1.2.3 Phases=3 Conn=wye Model=8 zipv=(0.5,0,0.5,1,0,0,0) kv=13.8000 pf=0.92 kW=273.4795 Daily=MT1_1
New Load.MT_node_177731061_24 Bus1=node_177731061.1.2.3 Phases=3 Conn=wye Model=8 zipv=(0.5,0,0.5,1,0,0,0) kv=13.8000 pf=0.92 kW=188.7493 Daily=MT1_1
New Load.MT_node_107537236_25 Bus1=node_107537236.1.2.3 Phases=3 Conn=wye Model=8 zipv=(0.5,0,0.5,1,0,0,0) kv=13.8000 pf=0.92 kW=161.0959 Daily=MT1_1
New Load.MT_node_424947932_26 Bus1=node_424947932.1.2.3 Phases=3 Conn=wye Model=8 zipv=(0.5,0,0.5,1,0,0,0) kv=13.8000 pf=0.92 kW=173.6466 Daily=MT4_1
New Load.MT_node_116448957_27 Bus1=node_116448957.1.2.3 Phases=3 Conn=wye Model=8 zipv=(0.5,0,0.5,1,0,0,0) kv=13.8000 pf=0.92 kW=158.2192 Daily=MT1_1
New Load.MT_node_116447932_28 Bus1=node_116447932.1.2.3 Phases=3 Conn=wye Model=8 zipv=(0.5,0,0.5,1,0,0,0) kv=13.8000 pf=0.92 kW=157.2603 Daily=MT1_1
New Load.MT_node_2719675005_29 Bus1=node_2719675005.1.2.3 Phases=3 Conn=wye Model=8 zipv=(0.5,0,0.5,1,0,0,0) kv=13.8000 pf=0.92 kW=141.7685 Daily=MT1_1
New Load.MT_node_177731016_30 Bus1=node_177731016.1.2.3 Phases=3 Conn=wye Model=8 zipv=(0.5,0,0.5,1,0,0,0) kv=13.8000 pf=0.92 kW=193.1068 Daily=MT1_1
New Load.MT_node_177731091_31 Bus1=node_177731091.1.2.3 Phases=3 Conn=wye Model=8 zipv=(0.5,0,0.5,1,0,0,0) kv=13.8000 pf=0.92 kW=152.0164 Daily=MT1_1
New Load.MT_node_444787936_32 Bus1=node_444787936.1.2.3 Phases=3 Conn=wye Model=8 zipv=(0.5,0,0.5,1,0,0,0) kv=13.8000 pf=0.92 kW=123.6986 Daily=MT3_1
New Load.MT_node_116447832_33 Bus1=node_116447832.1.2.3 Phases=3 Conn=wye Model=8 zipv=(0.5,0,0.5,1,0,0,0) kv=13.8000 pf=0.92 kW=104.7123 Daily=MT1_1
New Load.MT_node_177730976_34 Bus1=node_177730976.1.2.3 Phases=3 Conn=wye Model=8 zipv=(0.5,0,0.5,1,0,0,0) kv=13.8000 pf=0.92 kW=125.1110 Daily=MT1_1
New Load.MT_node_123961948_35 Bus1=node_123961948.1.2.3 Phases=3 Conn=wye Model=8 zipv=(0.5,0,0.5,1,0,0,0) kv=13.8000 pf=0.92 kW=93.0082 Daily=MT1_1
New Load.MT_node_177730996_36 Bus1=node_177730996.1.2.3 Phases=3 Conn=wye Model=8 zipv=(0.5,0,0.5,1,0,0,0) kv=13.8000 pf=0.92 kW=99.2466 Daily=MT1_1
New Load.MT_node_1976318253_37 Bus1=node_1976318253.1.2.3 Phases=3 Conn=wye Model=8 zipv=(0.5,0,0.5,1,0,0,0) kv=13.8000 pf=0.92 kW=85.8219 Daily=MT1_1
New Load.MT_node_1333291341_39 Bus1=node_1333291341.1.2.3 Phases=3 Conn=wye Model=8 zipv=(0.5,0,0.5,1,0,0,0) kv=13.8000 pf=0.92 kW=77.1479 Daily=MT1_1
New Load.MT_node_434920571_40 Bus1=node_434920571.3 Phases=1 Conn=wye Model=8 zipv=(0.5,0,0.5,1,0,0,0) kv=7.9674 pf=0.92 kW=57.9178 Daily=MT2_1
New Load.MT_node_424747780_41 Bus1=node_424747780.1.2.3 Phases=3 Conn=wye Model=8 zipv=(0.5,0,0.5,1,0,0,0) kv=13.8000 pf=0.92 kW=71.1041 Daily=MT2_1
New Load.MT_node_177731086_42 Bus1=node_177731086.1.2.3 Phases=3 Conn=wye Model=8 zipv=(0.5,0,0.5,1,0,0,0) kv=13.8000 pf=0.92 kW=65.1890 Daily=MT1_1
New Load.MT_node_111893843_43 Bus1=node_111893843.1.2.3 Phases=3 Conn=wye Model=8 zipv=(0.5,0,0.5,1,0,0,0) kv=13.8000 pf=0.92 kW=59.4219 Daily=MT1_1
New Load.MT_node_127162476_44 Bus1=node_127162476.1.2.3 Phases=3 Conn=wye Model=8 zipv=(0.5,0,0.5,1,0,0,0) kv=13.8000 pf=0.92 kW=70.5205 Daily=MT1_1
New Load.MT_node_428148319_45 Bus1=node_428148319.1.2.3 Phases=3 Conn=wye Model=8 zipv=(0.5,0,0.5,1,0,0,0) kv=13.8000 pf=0.92 kW=52.7205 Daily=MT2_1
New Load.MT_node_177731136_46 Bus1=node_177731136.1.2.3 Phases=3 Conn=wye Model=8 zipv=(0.5,0,0.5,1,0,0,0) kv=13.8000 pf=0.92 kW=49.8630 Daily=MT1_1
New Load.MT_node_502366175_47 Bus1=node_502366175.1.2.3 Phases=3 Conn=wye Model=8 zipv=(0.5,0,0.5,1,0,0,0) kv=13.8000 pf=0.92 kW=54.5411 Daily=MT1_1
New Load.MT_node_126966927_49 Bus1=node_126966927.1.2.3 Phases=3 Conn=wye Model=8 zipv=(0.5,0,0.5,1,0,0,0) kv=13.8000 pf=0.92 kW=45.4932 Daily=MT1_1
New Load.MT_node_125918407_50 Bus1=node_125918407.1.2.3 Phases=3 Conn=wye Model=8 zipv=(0.5,0,0.5,1,0,0,0) kv=13.8000 pf=0.92 kW=42.7973 Daily=MT1_1
New Load.MT_node_112072388_51 Bus1=node_112072388.1.2.3 Phases=3 Conn=wye Model=8 zipv=(0.5,0,0.5,1,0,0,0) kv=13.8000 pf=0.92 kW=44.6507 Daily=MT1_1
New Load.MT_node_177731156_52 Bus1=node_177731156.1.2.3 Phases=3 Conn=wye Model=8 zipv=(0.5,0,0.5,1,0,0,0) kv=13.8000 pf=0.92 kW=31.3562 Daily=MT1_1
New Load.MT_node_124208396_53 Bus1=node_124208396.1.2.3 Phases=3 Conn=wye Model=8 zipv=(0.5,0,0.5,1,0,0,0) kv=13.8000 pf=0.92 kW=68.1836 Daily=MT5_1
New Load.MT_node_1620830727_54 Bus1=node_1620830727.1.2.3 Phases=3 Conn=wye Model=8 zipv=(0.5,0,0.5,1,0,0,0) kv=13.8000 pf=0.92 kW=43.8644 Daily=MT2_1
New Load.MT_node_116621972_55 Bus1=node_116621972.1.2.3 Phases=3 Conn=wye Model=8 zipv=(0.5,0,0.5,1,0,0,0) kv=13.8000 pf=0.92 kW=94.9315 Daily=MT1_1
New Load.MT_node_177731051_57 Bus1=node_177731051.1.2.3 Phases=3 Conn=wye Model=8 zipv=(0.5,0,0.5,1,0,0,0) kv=13.8000 pf=0.92 kW=46.0274 Daily=MT1_1
New Load.MT_node_116622197_58 Bus1=node_116622197.1.2.3 Phases=3 Conn=wye Model=8 zipv=(0.5,0,0.5,1,0,0,0) kv=13.8000 pf=0.92 kW=36.4384 Daily=MT1_1
New Load.MT_node_123962573_59 Bus1=node_123962573.1.2.3 Phases=3 Conn=wye Model=8 zipv=(0.5,0,0.5,1,0,0,0) kv=13.8000 pf=0.92 kW=31.1644 Daily=MT1_1
New Load.MT_node_428146892_60 Bus1=node_428146892.1.2.3 Phases=3 Conn=wye Model=8 zipv=(0.5,0,0.5,1,0,0,0) kv=13.8000 pf=0.92 kW=27.8575 Daily=MT1_1
New Load.MT_node_434920985_61 Bus1=node_434920985.1.2.3 Phases=3 Conn=wye Model=8 zipv=(0.5,0,0.5,1,0,0,0) kv=13.8000 pf=0.92 kW=26.6575 Daily=MT2_1
New Load.MT_node_444786993_62 Bus1=node_444786993.1.2.3 Phases=3 Conn=wye Model=8 zipv=(0.5,0,0.5,1,0,0,0) kv=13.8000 pf=0.92 kW=20.1370 Daily=MT1_1
New Load.MT_node_424949682_63 Bus1=node_424949682.1.2.3 Phases=3 Conn=wye Model=8 zipv=(0.5,0,0.5,1,0,0,0) kv=13.8000 pf=0.92 kW=24.2603 Daily=MT1_1
New Load.MT_node_177730981_64 Bus1=node_177730981.1.2.3 Phases=3 Conn=wye Model=8 zipv=(0.5,0,0.5,1,0,0,0) kv=13.8000 pf=0.92 kW=25.1233 Daily=MT1_1
New Load.MT_node_116622192_65 Bus1=node_116622192.1.2.3 Phases=3 Conn=wye Model=8 zipv=(0.5,0,0.5,1,0,0,0) kv=13.8000 pf=0.92 kW=22.1288 Daily=MT1_1
New Load.MT_node_112069988_67 Bus1=node_112069988.1.2.3 Phases=3 Conn=wye Model=8 zipv=(0.5,0,0.5,1,0,0,0) kv=13.8000 pf=0.92 kW=21.4548 Daily=MT1_1
New Load.MT_node_1033162627_68 Bus1=node_1033162627.1.2.3 Phases=3 Conn=wye Model=8 zipv=(0.5,0,0.5,1,0,0,0) kv=13.8000 pf=0.92 kW=17.5890 Daily=MT5_1
New Load.MT_node_116621227_70 Bus1=node_116621227.1.2.3 Phases=3 Conn=wye Model=8 zipv=(0.5,0,0.5,1,0,0,0) kv=13.8000 pf=0.92 kW=19.9384 Daily=MT1_1
New Load.MT_node_125587912_71 Bus1=node_125587912.1.2.3 Phases=3 Conn=wye Model=8 zipv=(0.5,0,0.5,1,0,0,0) kv=13.8000 pf=0.92 kW=8.5932 Daily=MT5_1
New Load.MT_node_177731001_72 Bus1=node_177731001.1.2.3 Phases=3 Conn=wye Model=8 zipv=(0.5,0,0.5,1,0,0,0) kv=13.8000 pf=0.92 kW=17.6438 Daily=MT1_1
New Load.MT_node_177730961_73 Bus1=node_177730961.1.2.3 Phases=3 Conn=wye Model=8 zipv=(0.5,0,0.5,1,0,0,0) kv=13.8000 pf=0.92 kW=14.2658 Daily=MT1_1
New Load.MT_node_177730966_74 Bus1=node_177730966.1.2.3 Phases=3 Conn=wye Model=8 zipv=(0.5,0,0.5,1,0,0,0) kv=13.8000 pf=0.92 kW=14.3671 Daily=MT1_1
New Load.MT_node_122622064_75 Bus1=node_122622064.1.2.3 Phases=3 Conn=wye Model=8 zipv=(0.5,0,0.5,1,0,0,0) kv=13.8000 pf=0.92 kW=21.1740 Daily=MT1_1
New Load.MT_node_123962343_76 Bus1=node_123962343.1.2.3 Phases=3 Conn=wye Model=8 zipv=(0.5,0,0.5,1,0,0,0) kv=13.8000 pf=0.92 kW=14.7712 Daily=MT5_1
New Load.MT_node_111894083_77 Bus1=node_111894083.1.2.3 Phases=3 Conn=wye Model=8 zipv=(0.5,0,0.5,1,0,0,0) kv=13.8000 pf=0.92 kW=9.7808 Daily=MT1_1
New Load.MT_node_112071768_78 Bus1=node_112071768.1.2.3 Phases=3 Conn=wye Model=8 zipv=(0.5,0,0.5,1,0,0,0) kv=13.8000 pf=0.92 kW=25.9479 Daily=MT5_1
New Load.MT_node_425077427_79 Bus1=node_425077427.1.2.3 Phases=3 Conn=wye Model=8 zipv=(0.5,0,0.5,1,0,0,0) kv=13.8000 pf=0.92 kW=11.9068 Daily=MT1_1
New Load.MT_node_125919132_80 Bus1=node_125919132.1.2.3 Phases=3 Conn=wye Model=8 zipv=(0.5,0,0.5,1,0,0,0) kv=13.8000 pf=0.92 kW=12.2438 Daily=MT1_1
New Load.MT_node_125061508_81 Bus1=node_125061508.1.2.3 Phases=3 Conn=wye Model=8 zipv=(0.5,0,0.5,1,0,0,0) kv=13.8000 pf=0.92 kW=40.1575 Daily=MT1_1
New Load.MT_node_2682302925_82 Bus1=node_2682302925.1.2.3 Phases=3 Conn=wye Model=8 zipv=(0.5,0,0.5,1,0,0,0) kv=13.8000 pf=0.92 kW=15.5342 Daily=MT1_1
New Load.MT_node_126967687_85 Bus1=node_126967687.1.2.3 Phases=3 Conn=wye Model=8 zipv=(0.5,0,0.5,1,0,0,0) kv=13.8000 pf=0.92 kW=7.9753 Daily=MT1_1
New Load.MT_node_114042549_86 Bus1=node_114042549.1.2.3 Phases=3 Conn=wye Model=8 zipv=(0.5,0,0.5,1,0,0,0) kv=13.8000 pf=0.92 kW=9.4356 Daily=MT1_1
New Load.MT_node_784264796_87 Bus1=node_784264796.1.2.3 Phases=3 Conn=wye Model=8 zipv=(0.5,0,0.5,1,0,0,0) kv=13.8000 pf=0.92 kW=17.9164 Daily=MT1_1
New Load.MT_node_119778979_88 Bus1=node_119778979.1.2.3 Phases=3 Conn=wye Model=8 zipv=(0.5,0,0.5,1,0,0,0) kv=13.8000 pf=0.92 kW=8.5932 Daily=MT1_1
New Load.MT_node_424747804_90 Bus1=node_424747804.1.2.3 Phases=3 Conn=wye Model=8 zipv=(0.5,0,0.5,1,0,0,0) kv=13.8000 pf=0.92 kW=7.7507 Daily=MT1_1
New Load.MT_node_127259629_91 Bus1=node_127259629.1.2.3 Phases=3 Conn=wye Model=8 zipv=(0.5,0,0.5,1,0,0,0) kv=13.8000 pf=0.92 kW=11.1205 Daily=MT5_1
New Load.MT_node_123961803_92 Bus1=node_123961803.1.2.3 Phases=3 Conn=wye Model=8 zipv=(0.5,0,0.5,1,0,0,0) kv=13.8000 pf=0.92 kW=18.9274 Daily=MT1_1
New Load.MT_node_116448552_95 Bus1=node_116448552.1.2.3 Phases=3 Conn=wye Model=8 zipv=(0.5,0,0.5,1,0,0,0) kv=13.8000 pf=0.92 kW=5.8411 Daily=MT1_1
New Load.MT_node_125061638_96 Bus1=node_125061638.1.2.3 Phases=3 Conn=wye Model=8 zipv=(0.5,0,0.5,1,0,0,0) kv=13.8000 pf=0.92 kW=60.8904 Daily=MT1_1
New Load.MT_node_122621424_97 Bus1=node_122621424.1.2.3 Phases=3 Conn=wye Model=8 zipv=(0.5,0,0.5,1,0,0,0) kv=13.8000 pf=0.92 kW=3.3137 Daily=MT5_1
New Load.MT_node_2845213842_98 Bus1=node_2845213842.1.2.3 Phases=3 Conn=wye Model=8 zipv=(0.5,0,0.5,1,0,0,0) kv=13.8000 pf=0.92 kW=10.5479 Daily=MT1_1
New Load.MT_node_111732445_99 Bus1=node_111732445.1.2.3 Phases=3 Conn=wye Model=8 zipv=(0.5,0,0.5,1,0,0,0) kv=13.8000 pf=0.92 kW=27.0712 Daily=MT1_1
New Load.MT_node_110547844_100 Bus1=node_110547844.1.2.3 Phases=3 Conn=wye Model=8 zipv=(0.5,0,0.5,1,0,0,0) kv=13.8000 pf=0.92 kW=6.0658 Daily=MT5_1
New Load.MT_node_112072878_101 Bus1=node_112072878.1.2.3 Phases=3 Conn=wye Model=8 zipv=(0.5,0,0.5,1,0,0,0) kv=13.8000 pf=0.92 kW=3.4260 Daily=MT5_1
New Load.MT_node_177731101_102 Bus1=node_177731101.1.2.3 Phases=3 Conn=wye Model=8 zipv=(0.5,0,0.5,1,0,0,0) kv=13.8000 pf=0.92 kW=0.5479 Daily=MT5_1
New Load.MT_node_126479976_103 Bus1=node_126479976.1.2.3 Phases=3 Conn=wye Model=8 zipv=(0.5,0,0.5,1,0,0,0) kv=13.8000 pf=0.92 kW=4.4932 Daily=MT1_1
New Load.MT_node_124208396_104 Bus1=node_124208396.1.2.3 Phases=3 Conn=wye Model=8 zipv=(0.5,0,0.5,1,0,0,0) kv=13.8000 pf=0.92 kW=10.7274 Daily=MT1_1
New Load.MT_node_784264796_105 Bus1=node_784264796.1.2.3 Phases=3 Conn=wye Model=8 zipv=(0.5,0,0.5,1,0,0,0) kv=13.8000 pf=0.92 kW=8.0877 Daily=MT1_1
New Load.MT_node_177731146_106 Bus1=node_177731146.1.2.3 Phases=3 Conn=wye Model=8 zipv=(0.5,0,0.5,1,0,0,0) kv=13.8000 pf=0.92 kW=12.9452 Daily=MT1_1
New Load.MT_node_424747659_107 Bus1=node_424747659.1.2.3 Phases=3 Conn=wye Model=8 zipv=(0.5,0,0.5,1,0,0,0) kv=13.8000 pf=0.92 kW=4.4932 Daily=MT1_1
New Load.MT_node_125589552_108 Bus1=node_125589552.1.2.3 Phases=3 Conn=wye Model=8 zipv=(0.5,0,0.5,1,0,0,0) kv=13.8000 pf=0.92 kW=5.4479 Daily=MT1_1
New Load.MT_node_124210781_109 Bus1=node_124210781.1.2.3 Phases=3 Conn=wye Model=8 zipv=(0.5,0,0.5,1,0,0,0) kv=13.8000 pf=0.92 kW=1.7973 Daily=MT1_1
New Load.MT_node_438394539_110 Bus1=node_438394539.3 Phases=1 Conn=wye Model=8 zipv=(0.5,0,0.5,1,0,0,0) kv=7.9674 pf=0.92 kW=6.6274 Daily=MT1_1
New Load.MT_node_424747064_111 Bus1=node_424747064.1.2.3 Phases=3 Conn=wye Model=8 zipv=(0.5,0,0.5,1,0,0,0) kv=13.8000 pf=0.92 kW=2.5205 Daily=MT1_1
New Load.MT_node_502365646_112 Bus1=node_502365646.1.2.3 Phases=3 Conn=wye Model=8 zipv=(0.5,0,0.5,1,0,0,0) kv=13.8000 pf=0.92 kW=3.8904 Daily=MT1_1
New Load.MT_node_110854329_113 Bus1=node_110854329.1.2.3 Phases=3 Conn=wye Model=8 zipv=(0.5,0,0.5,1,0,0,0) kv=13.8000 pf=0.92 kW=5.3356 Daily=MT5_1
New Load.MT_node_125589692_114 Bus1=node_125589692.1.2.3 Phases=3 Conn=wye Model=8 zipv=(0.5,0,0.5,1,0,0,0) kv=13.8000 pf=0.92 kW=0.9548 Daily=MT1_1
New Load.MT_node_123962083_115 Bus1=node_123962083.1.2.3 Phases=3 Conn=wye Model=8 zipv=(0.5,0,0.5,1,0,0,0) kv=13.8000 pf=0.92 kW=30.8904 Daily=MT1_1
New Load.MT_node_119779449_116 Bus1=node_119779449.1.2.3 Phases=3 Conn=wye Model=8 zipv=(0.5,0,0.5,1,0,0,0) kv=13.8000 pf=0.92 kW=2.5836 Daily=MT5_1
New Load.MT_node_124208776_117 Bus1=node_124208776.1.2.3 Phases=3 Conn=wye Model=8 zipv=(0.5,0,0.5,1,0,0,0) kv=13.8000 pf=0.92 kW=1.2356 Daily=MT5_1
New Load.MT_node_112071408_118 Bus1=node_112071408.1.2.3 Phases=3 Conn=wye Model=8 zipv=(0.5,0,0.5,1,0,0,0) kv=13.8000 pf=0.92 kW=0.0562 Daily=MT5_1
New Load.MT_node_111733565_119 Bus1=node_111733565.1.2.3 Phases=3 Conn=wye Model=8 zipv=(0.5,0,0.5,1,0,0,0) kv=13.8000 pf=0.92 kW=1.2356 Daily=MT5_1
New Load.MT_node_110701594_120 Bus1=node_110701594.1.2.3 Phases=3 Conn=wye Model=8 zipv=(0.5,0,0.5,1,0,0,0) kv=13.8000 pf=0.92 kW=15.0521 Daily=MT5_1
New Load.MT_node_111730345_122 Bus1=node_111730345.1.2.3 Phases=3 Conn=wye Model=8 zipv=(0.5,0,0.5,1,0,0,0) kv=13.8000 pf=0.92 kW=11.2890 Daily=MT1_1
New Load.MT_node_110702504_123 Bus1=node_110702504.1.2.3 Phases=3 Conn=wye Model=8 zipv=(0.5,0,0.5,1,0,0,0) kv=13.8000 pf=0.92 kW=17.8041 Daily=MT1_1
New Load.MT_node_124210446_124 Bus1=node_124210446.1.2.3 Phases=3 Conn=wye Model=8 zipv=(0.5,0,0.5,1,0,0,0) kv=13.8000 pf=0.92 kW=0.9548 Daily=MT4_1
New Load.MT_node_112240535_126 Bus1=node_112240535.1.2.3 Phases=3 Conn=wye Model=8 zipv=(0.5,0,0.5,1,0,0,0) kv=13.8000 pf=0.92 kW=0.4493 Daily=MT1_1
New Load.MT_node_123963058_127 Bus1=node_123963058.1.2.3 Phases=3 Conn=wye Model=8 zipv=(0.5,0,0.5,1,0,0,0) kv=13.8000 pf=0.92 kW=0.5055 Daily=MT1_1
New Load.MT_node_112070473_128 Bus1=node_112070473.1.2.3 Phases=3 Conn=wye Model=8 zipv=(0.5,0,0.5,1,0,0,0) kv=13.8000 pf=0.92 kW=0.3370 Daily=MT1_1
New Load.MT_node_124209606_129 Bus1=node_124209606.1.2.3 Phases=3 Conn=wye Model=8 zipv=(0.5,0,0.5,1,0,0,0) kv=13.8000 pf=0.92 kW=10.7836 Daily=MT1_1
New Load.MT_node_429847391_130 Bus1=node_429847391.2 Phases=1 Conn=wye Model=8 zipv=(0.5,0,0.5,1,0,0,0) kv=7.9674 pf=0.92 kW=14.5466 Daily=MT1_1
New Load.MT_node_438395375_131 Bus1=node_438395375.2 Phases=1 Conn=wye Model=8 zipv=(0.5,0,0.5,1,0,0,0) kv=7.9674 pf=0.92 kW=0.3370 Daily=MT1_1
New Load.MT_node_437192481_132 Bus1=node_437192481.3 Phases=1 Conn=wye Model=8 zipv=(0.5,0,0.5,1,0,0,0) kv=7.9674 pf=0.92 kW=0.4493 Daily=MT1_1
New Load.MT_node_124210161_133 Bus1=node_124210161.1.2.3 Phases=3 Conn=wye Model=8 zipv=(0.5,0,0.5,1,0,0,0) kv=13.8000 pf=0.92 kW=0.0562 Daily=MT4_1
New Load.MT_node_123961728_134 Bus1=node_123961728.1.2.3 Phases=3 Conn=wye Model=8 zipv=(0.5,0,0.5,1,0,0,0) kv=13.8000 pf=0.92 kW=0.1685 Daily=MT1_1
New Load.MT_node_123962198_136 Bus1=node_123962198.1.2.3 Phases=3 Conn=wye Model=8 zipv=(0.5,0,0.5,1,0,0,0) kv=13.8000 pf=0.92 kW=0.0562 Daily=MT5_1
New Load.MT_node_110703294_137 Bus1=node_110703294.1.2.3 Phases=3 Conn=wye Model=8 zipv=(0.5,0,0.5,1,0,0,0) kv=13.8000 pf=0.92 kW=9.7164 Daily=MT5_1
New Load.MT_node_122621644_138 Bus1=node_122621644.1.2.3 Phases=3 Conn=wye Model=8 zipv=(0.5,0,0.5,1,0,0,0) kv=13.8000 pf=0.92 kW=6.3288 Daily=MT1_1
New Load.MT_node_127061496_139 Bus1=node_127061496.1.2.3 Phases=3 Conn=wye Model=8 zipv=(0.5,0,0.5,1,0,0,0) kv=13.8000 pf=0.92 kW=2.4712 Daily=MT5_1
New Load.MT_node_2816628980_140 Bus1=node_2816628980.1.2.3 Phases=3 Conn=wye Model=8 zipv=(0.5,0,0.5,1,0,0,0) kv=13.8000 pf=0.92 kW=18.5342 Daily=MT1_1
New Load.MT_node_110546314_141 Bus1=node_110546314.1.2.3 Phases=3 Conn=wye Model=8 zipv=(0.5,0,0.5,1,0,0,0) kv=13.8000 pf=0.92 kW=3.9315 Daily=MT1_1
New Load.MT_node_428149180_143 Bus1=node_428149180.1.2.3 Phases=3 Conn=wye Model=8 zipv=(0.5,0,0.5,1,0,0,0) kv=13.8000 pf=0.92 kW=1.0671 Daily=MT5_1
New Load.MT_node_123962338_144 Bus1=node_123962338.1.2.3 Phases=3 Conn=wye Model=8 zipv=(0.5,0,0.5,1,0,0,0) kv=13.8000 pf=0.92 kW=3.2014 Daily=MT5_1
New Load.MT_node_1385399184_145 Bus1=node_1385399184.1.2.3 Phases=3 Conn=wye Model=8 zipv=(0.5,0,0.5,1,0,0,0) kv=13.8000 pf=0.92 kW=10.2219 Daily=MT5_1
New Load.MT_node_114041549_146 Bus1=node_114041549.1.2.3 Phases=3 Conn=wye Model=8 zipv=(0.5,0,0.5,1,0,0,0) kv=13.8000 pf=0.92 kW=2.5836 Daily=MT5_1
New Load.MT_node_124209386_149 Bus1=node_124209386.1.2.3 Phases=3 Conn=wye Model=8 zipv=(0.5,0,0.5,1,0,0,0) kv=13.8000 pf=0.92 kW=0.1096 Daily=MT3_1
New Load.MT_node_122899655_151 Bus1=node_122899655.1.2.3 Phases=3 Conn=wye Model=8 zipv=(0.5,0,0.5,1,0,0,0) kv=13.8000 pf=0.92 kW=34.4247 Daily=MT1_1
New Load.MT_node_124210126_153 Bus1=node_124210126.1.2.3 Phases=3 Conn=wye Model=8 zipv=(0.5,0,0.5,1,0,0,0) kv=13.8000 pf=0.92 kW=22.4658 Daily=MT1_1
New Load.MT_node_107570674_154 Bus1=node_107570674.1.2.3 Phases=3 Conn=wye Model=8 zipv=(0.5,0,0.5,1,0,0,0) kv=13.8000 pf=0.92 kW=3.7068 Daily=MT1_1
New Load.MT_node_124210196_155 Bus1=node_124210196.1.2.3 Phases=3 Conn=wye Model=8 zipv=(0.5,0,0.5,1,0,0,0) kv=13.8000 pf=0.92 kW=0.7863 Daily=MT5_1
New Load.MT_node_119574991_156 Bus1=node_119574991.1.2.3 Phases=3 Conn=wye Model=8 zipv=(0.5,0,0.5,1,0,0,0) kv=13.8000 pf=0.92 kW=11.7945 Daily=MT1_1
New Load.MT_node_122621509_157 Bus1=node_122621509.1.2.3 Phases=3 Conn=wye Model=8 zipv=(0.5,0,0.5,1,0,0,0) kv=13.8000 pf=0.92 kW=11.9068 Daily=MT1_1
New Load.MT_node_124208411_172 Bus1=node_124208411.1.2.3 Phases=3 Conn=wye Model=8 zipv=(0.5,0,0.5,1,0,0,0) kv=13.8000 pf=0.92 kW=0.1123 Daily=MT1_1
